* NGSPICE file created from edge_analytics_ip_core.ext - technology: sky130A

* Black-box entry subcircuit for sky130_fd_sc_hd__decap_6 abstract view
.subckt sky130_fd_sc_hd__decap_6 VGND VNB VPB VPWR
.ends

* Black-box entry subcircuit for sky130_fd_sc_hd__dfrtp_1 abstract view
.subckt sky130_fd_sc_hd__dfrtp_1 CLK D RESET_B VGND VNB VPB VPWR Q
.ends

* Black-box entry subcircuit for sky130_fd_sc_hd__or3_1 abstract view
.subckt sky130_fd_sc_hd__or3_1 A B C VGND VNB VPB VPWR X
.ends

* Black-box entry subcircuit for sky130_fd_sc_hd__fill_1 abstract view
.subckt sky130_fd_sc_hd__fill_1 VGND VNB VPB VPWR
.ends

* Black-box entry subcircuit for sky130_fd_sc_hd__a221o_1 abstract view
.subckt sky130_fd_sc_hd__a221o_1 A1 A2 B1 B2 C1 VGND VNB VPB VPWR X
.ends

* Black-box entry subcircuit for sky130_fd_sc_hd__clkbuf_1 abstract view
.subckt sky130_fd_sc_hd__clkbuf_1 A VGND VNB VPB VPWR X
.ends

* Black-box entry subcircuit for sky130_fd_sc_hd__and2_2 abstract view
.subckt sky130_fd_sc_hd__and2_2 A B VGND VNB VPB VPWR X
.ends

* Black-box entry subcircuit for sky130_fd_sc_hd__dfxtp_1 abstract view
.subckt sky130_fd_sc_hd__dfxtp_1 CLK D VGND VNB VPB VPWR Q
.ends

* Black-box entry subcircuit for sky130_fd_sc_hd__fill_2 abstract view
.subckt sky130_fd_sc_hd__fill_2 VGND VNB VPB VPWR
.ends

* Black-box entry subcircuit for sky130_fd_sc_hd__mux2_1 abstract view
.subckt sky130_fd_sc_hd__mux2_1 A0 A1 S VGND VNB VPB VPWR X
.ends

* Black-box entry subcircuit for sky130_fd_sc_hd__decap_8 abstract view
.subckt sky130_fd_sc_hd__decap_8 VGND VNB VPB VPWR
.ends

* Black-box entry subcircuit for sky130_fd_sc_hd__decap_3 abstract view
.subckt sky130_fd_sc_hd__decap_3 VGND VNB VPB VPWR
.ends

* Black-box entry subcircuit for sky130_fd_sc_hd__and2_1 abstract view
.subckt sky130_fd_sc_hd__and2_1 A B VGND VNB VPB VPWR X
.ends

* Black-box entry subcircuit for sky130_fd_sc_hd__dlygate4sd3_1 abstract view
.subckt sky130_fd_sc_hd__dlygate4sd3_1 A VGND VNB VPB VPWR X
.ends

* Black-box entry subcircuit for sky130_fd_sc_hd__decap_4 abstract view
.subckt sky130_fd_sc_hd__decap_4 VGND VNB VPB VPWR
.ends

* Black-box entry subcircuit for sky130_fd_sc_hd__buf_8 abstract view
.subckt sky130_fd_sc_hd__buf_8 A VGND VNB VPB VPWR X
.ends

* Black-box entry subcircuit for sky130_ef_sc_hd__decap_12 abstract view
.subckt sky130_ef_sc_hd__decap_12 VPWR VGND VPB VNB
.ends

* Black-box entry subcircuit for sky130_fd_sc_hd__nor2_1 abstract view
.subckt sky130_fd_sc_hd__nor2_1 A B VGND VNB VPB VPWR Y
.ends

* Black-box entry subcircuit for sky130_fd_sc_hd__inv_2 abstract view
.subckt sky130_fd_sc_hd__inv_2 A VGND VNB VPB VPWR Y
.ends

* Black-box entry subcircuit for sky130_fd_sc_hd__nand2_1 abstract view
.subckt sky130_fd_sc_hd__nand2_1 A B VGND VNB VPB VPWR Y
.ends

* Black-box entry subcircuit for sky130_fd_sc_hd__tapvpwrvgnd_1 abstract view
.subckt sky130_fd_sc_hd__tapvpwrvgnd_1 VGND VPWR
.ends

* Black-box entry subcircuit for sky130_fd_sc_hd__clkbuf_4 abstract view
.subckt sky130_fd_sc_hd__clkbuf_4 A VGND VNB VPB VPWR X
.ends

* Black-box entry subcircuit for sky130_fd_sc_hd__buf_4 abstract view
.subckt sky130_fd_sc_hd__buf_4 A VGND VNB VPB VPWR X
.ends

* Black-box entry subcircuit for sky130_fd_sc_hd__a22o_1 abstract view
.subckt sky130_fd_sc_hd__a22o_1 A1 A2 B1 B2 VGND VNB VPB VPWR X
.ends

* Black-box entry subcircuit for sky130_fd_sc_hd__nor2_4 abstract view
.subckt sky130_fd_sc_hd__nor2_4 A B VGND VNB VPB VPWR Y
.ends

* Black-box entry subcircuit for sky130_fd_sc_hd__diode_2 abstract view
.subckt sky130_fd_sc_hd__diode_2 DIODE VGND VNB VPB VPWR
.ends

* Black-box entry subcircuit for sky130_fd_sc_hd__or4_1 abstract view
.subckt sky130_fd_sc_hd__or4_1 A B C D VGND VNB VPB VPWR X
.ends

* Black-box entry subcircuit for sky130_fd_sc_hd__o21a_1 abstract view
.subckt sky130_fd_sc_hd__o21a_1 A1 A2 B1 VGND VNB VPB VPWR X
.ends

* Black-box entry subcircuit for sky130_fd_sc_hd__a211o_1 abstract view
.subckt sky130_fd_sc_hd__a211o_1 A1 A2 B1 C1 VGND VNB VPB VPWR X
.ends

* Black-box entry subcircuit for sky130_fd_sc_hd__nand2_4 abstract view
.subckt sky130_fd_sc_hd__nand2_4 A B VGND VNB VPB VPWR Y
.ends

* Black-box entry subcircuit for sky130_fd_sc_hd__clkbuf_16 abstract view
.subckt sky130_fd_sc_hd__clkbuf_16 A VGND VNB VPB VPWR X
.ends

* Black-box entry subcircuit for sky130_fd_sc_hd__a2bb2o_1 abstract view
.subckt sky130_fd_sc_hd__a2bb2o_1 A1_N A2_N B1 B2 VGND VNB VPB VPWR X
.ends

* Black-box entry subcircuit for sky130_fd_sc_hd__or2_1 abstract view
.subckt sky130_fd_sc_hd__or2_1 A B VGND VNB VPB VPWR X
.ends

* Black-box entry subcircuit for sky130_fd_sc_hd__o2bb2a_1 abstract view
.subckt sky130_fd_sc_hd__o2bb2a_1 A1_N A2_N B1 B2 VGND VNB VPB VPWR X
.ends

* Black-box entry subcircuit for sky130_fd_sc_hd__a32o_1 abstract view
.subckt sky130_fd_sc_hd__a32o_1 A1 A2 A3 B1 B2 VGND VNB VPB VPWR X
.ends

* Black-box entry subcircuit for sky130_fd_sc_hd__a21oi_1 abstract view
.subckt sky130_fd_sc_hd__a21oi_1 A1 A2 B1 VGND VNB VPB VPWR Y
.ends

* Black-box entry subcircuit for sky130_fd_sc_hd__dfrtp_4 abstract view
.subckt sky130_fd_sc_hd__dfrtp_4 CLK D RESET_B VGND VNB VPB VPWR Q
.ends

* Black-box entry subcircuit for sky130_fd_sc_hd__buf_1 abstract view
.subckt sky130_fd_sc_hd__buf_1 A VGND VNB VPB VPWR X
.ends

* Black-box entry subcircuit for sky130_fd_sc_hd__and2b_2 abstract view
.subckt sky130_fd_sc_hd__and2b_2 A_N B VGND VNB VPB VPWR X
.ends

* Black-box entry subcircuit for sky130_fd_sc_hd__dlymetal6s2s_1 abstract view
.subckt sky130_fd_sc_hd__dlymetal6s2s_1 A VGND VNB VPB VPWR X
.ends

* Black-box entry subcircuit for sky130_fd_sc_hd__or2b_1 abstract view
.subckt sky130_fd_sc_hd__or2b_1 A B_N VGND VNB VPB VPWR X
.ends

* Black-box entry subcircuit for sky130_fd_sc_hd__and2b_1 abstract view
.subckt sky130_fd_sc_hd__and2b_1 A_N B VGND VNB VPB VPWR X
.ends

* Black-box entry subcircuit for sky130_fd_sc_hd__and3_1 abstract view
.subckt sky130_fd_sc_hd__and3_1 A B C VGND VNB VPB VPWR X
.ends

* Black-box entry subcircuit for sky130_fd_sc_hd__nor2_2 abstract view
.subckt sky130_fd_sc_hd__nor2_2 A B VGND VNB VPB VPWR Y
.ends

* Black-box entry subcircuit for sky130_fd_sc_hd__or3b_4 abstract view
.subckt sky130_fd_sc_hd__or3b_4 A B C_N VGND VNB VPB VPWR X
.ends

* Black-box entry subcircuit for sky130_fd_sc_hd__dfxtp_2 abstract view
.subckt sky130_fd_sc_hd__dfxtp_2 CLK D VGND VNB VPB VPWR Q
.ends

* Black-box entry subcircuit for sky130_fd_sc_hd__dfstp_1 abstract view
.subckt sky130_fd_sc_hd__dfstp_1 CLK D SET_B VGND VNB VPB VPWR Q
.ends

* Black-box entry subcircuit for sky130_fd_sc_hd__clkbuf_8 abstract view
.subckt sky130_fd_sc_hd__clkbuf_8 A VGND VNB VPB VPWR X
.ends

* Black-box entry subcircuit for sky130_fd_sc_hd__a31o_1 abstract view
.subckt sky130_fd_sc_hd__a31o_1 A1 A2 A3 B1 VGND VNB VPB VPWR X
.ends

* Black-box entry subcircuit for sky130_fd_sc_hd__and3_2 abstract view
.subckt sky130_fd_sc_hd__and3_2 A B C VGND VNB VPB VPWR X
.ends

* Black-box entry subcircuit for sky130_fd_sc_hd__buf_2 abstract view
.subckt sky130_fd_sc_hd__buf_2 A VGND VNB VPB VPWR X
.ends

* Black-box entry subcircuit for sky130_fd_sc_hd__clkbuf_2 abstract view
.subckt sky130_fd_sc_hd__clkbuf_2 A VGND VNB VPB VPWR X
.ends

* Black-box entry subcircuit for sky130_fd_sc_hd__a2111o_1 abstract view
.subckt sky130_fd_sc_hd__a2111o_1 A1 A2 B1 C1 D1 VGND VNB VPB VPWR X
.ends

* Black-box entry subcircuit for sky130_fd_sc_hd__o21ai_1 abstract view
.subckt sky130_fd_sc_hd__o21ai_1 A1 A2 B1 VGND VNB VPB VPWR Y
.ends

* Black-box entry subcircuit for sky130_fd_sc_hd__and4_2 abstract view
.subckt sky130_fd_sc_hd__and4_2 A B C D VGND VNB VPB VPWR X
.ends

* Black-box entry subcircuit for sky130_fd_sc_hd__or4_2 abstract view
.subckt sky130_fd_sc_hd__or4_2 A B C D VGND VNB VPB VPWR X
.ends

* Black-box entry subcircuit for sky130_fd_sc_hd__xor2_1 abstract view
.subckt sky130_fd_sc_hd__xor2_1 A B VGND VNB VPB VPWR X
.ends

* Black-box entry subcircuit for sky130_fd_sc_hd__o22a_1 abstract view
.subckt sky130_fd_sc_hd__o22a_1 A1 A2 B1 B2 VGND VNB VPB VPWR X
.ends

* Black-box entry subcircuit for sky130_fd_sc_hd__nor3_1 abstract view
.subckt sky130_fd_sc_hd__nor3_1 A B C VGND VNB VPB VPWR Y
.ends

* Black-box entry subcircuit for sky130_fd_sc_hd__nand2_2 abstract view
.subckt sky130_fd_sc_hd__nand2_2 A B VGND VNB VPB VPWR Y
.ends

* Black-box entry subcircuit for sky130_fd_sc_hd__buf_6 abstract view
.subckt sky130_fd_sc_hd__buf_6 A VGND VNB VPB VPWR X
.ends

* Black-box entry subcircuit for sky130_fd_sc_hd__and4b_1 abstract view
.subckt sky130_fd_sc_hd__and4b_1 A_N B C D VGND VNB VPB VPWR X
.ends

* Black-box entry subcircuit for sky130_fd_sc_hd__xnor2_1 abstract view
.subckt sky130_fd_sc_hd__xnor2_1 A B VGND VNB VPB VPWR Y
.ends

* Black-box entry subcircuit for sky130_fd_sc_hd__o221a_1 abstract view
.subckt sky130_fd_sc_hd__o221a_1 A1 A2 B1 B2 C1 VGND VNB VPB VPWR X
.ends

* Black-box entry subcircuit for sky130_fd_sc_hd__o31a_1 abstract view
.subckt sky130_fd_sc_hd__o31a_1 A1 A2 A3 B1 VGND VNB VPB VPWR X
.ends

* Black-box entry subcircuit for sky130_fd_sc_hd__dfrtp_2 abstract view
.subckt sky130_fd_sc_hd__dfrtp_2 CLK D RESET_B VGND VNB VPB VPWR Q
.ends

* Black-box entry subcircuit for sky130_fd_sc_hd__and3_4 abstract view
.subckt sky130_fd_sc_hd__and3_4 A B C VGND VNB VPB VPWR X
.ends

* Black-box entry subcircuit for sky130_fd_sc_hd__a21bo_1 abstract view
.subckt sky130_fd_sc_hd__a21bo_1 A1 A2 B1_N VGND VNB VPB VPWR X
.ends

* Black-box entry subcircuit for sky130_fd_sc_hd__o21ba_1 abstract view
.subckt sky130_fd_sc_hd__o21ba_1 A1 A2 B1_N VGND VNB VPB VPWR X
.ends

* Black-box entry subcircuit for sky130_fd_sc_hd__or4b_4 abstract view
.subckt sky130_fd_sc_hd__or4b_4 A B C D_N VGND VNB VPB VPWR X
.ends

* Black-box entry subcircuit for sky130_fd_sc_hd__nand4_4 abstract view
.subckt sky130_fd_sc_hd__nand4_4 A B C D VGND VNB VPB VPWR Y
.ends

* Black-box entry subcircuit for sky130_fd_sc_hd__and4_4 abstract view
.subckt sky130_fd_sc_hd__and4_4 A B C D VGND VNB VPB VPWR X
.ends

* Black-box entry subcircuit for sky130_fd_sc_hd__or4_4 abstract view
.subckt sky130_fd_sc_hd__or4_4 A B C D VGND VNB VPB VPWR X
.ends

* Black-box entry subcircuit for sky130_fd_sc_hd__nand2b_4 abstract view
.subckt sky130_fd_sc_hd__nand2b_4 A_N B VGND VNB VPB VPWR Y
.ends

* Black-box entry subcircuit for sky130_fd_sc_hd__or2_2 abstract view
.subckt sky130_fd_sc_hd__or2_2 A B VGND VNB VPB VPWR X
.ends

* Black-box entry subcircuit for sky130_fd_sc_hd__or3b_1 abstract view
.subckt sky130_fd_sc_hd__or3b_1 A B C_N VGND VNB VPB VPWR X
.ends

* Black-box entry subcircuit for sky130_fd_sc_hd__clkinv_4 abstract view
.subckt sky130_fd_sc_hd__clkinv_4 A VGND VNB VPB VPWR Y
.ends

* Black-box entry subcircuit for sky130_fd_sc_hd__and3b_1 abstract view
.subckt sky130_fd_sc_hd__and3b_1 A_N B C VGND VNB VPB VPWR X
.ends

* Black-box entry subcircuit for sky130_fd_sc_hd__nor4_2 abstract view
.subckt sky130_fd_sc_hd__nor4_2 A B C D VGND VNB VPB VPWR Y
.ends

* Black-box entry subcircuit for sky130_fd_sc_hd__and2_4 abstract view
.subckt sky130_fd_sc_hd__and2_4 A B VGND VNB VPB VPWR X
.ends

* Black-box entry subcircuit for sky130_fd_sc_hd__or2b_2 abstract view
.subckt sky130_fd_sc_hd__or2b_2 A B_N VGND VNB VPB VPWR X
.ends

* Black-box entry subcircuit for sky130_fd_sc_hd__a211oi_2 abstract view
.subckt sky130_fd_sc_hd__a211oi_2 A1 A2 B1 C1 VGND VNB VPB VPWR Y
.ends

* Black-box entry subcircuit for sky130_fd_sc_hd__a21o_1 abstract view
.subckt sky130_fd_sc_hd__a21o_1 A1 A2 B1 VGND VNB VPB VPWR X
.ends

* Black-box entry subcircuit for sky130_fd_sc_hd__nand3_1 abstract view
.subckt sky130_fd_sc_hd__nand3_1 A B C VGND VNB VPB VPWR Y
.ends

* Black-box entry subcircuit for sky130_fd_sc_hd__and3b_4 abstract view
.subckt sky130_fd_sc_hd__and3b_4 A_N B C VGND VNB VPB VPWR X
.ends

* Black-box entry subcircuit for sky130_fd_sc_hd__and4bb_1 abstract view
.subckt sky130_fd_sc_hd__and4bb_1 A_N B_N C D VGND VNB VPB VPWR X
.ends

* Black-box entry subcircuit for sky130_fd_sc_hd__and4_1 abstract view
.subckt sky130_fd_sc_hd__and4_1 A B C D VGND VNB VPB VPWR X
.ends

* Black-box entry subcircuit for sky130_fd_sc_hd__a31oi_1 abstract view
.subckt sky130_fd_sc_hd__a31oi_1 A1 A2 A3 B1 VGND VNB VPB VPWR Y
.ends

* Black-box entry subcircuit for sky130_fd_sc_hd__nor4_1 abstract view
.subckt sky130_fd_sc_hd__nor4_1 A B C D VGND VNB VPB VPWR Y
.ends

* Black-box entry subcircuit for sky130_fd_sc_hd__nor3b_1 abstract view
.subckt sky130_fd_sc_hd__nor3b_1 A B C_N VGND VNB VPB VPWR Y
.ends

* Black-box entry subcircuit for sky130_fd_sc_hd__dfxtp_4 abstract view
.subckt sky130_fd_sc_hd__dfxtp_4 CLK D VGND VNB VPB VPWR Q
.ends

* Black-box entry subcircuit for sky130_fd_sc_hd__nor3_4 abstract view
.subckt sky130_fd_sc_hd__nor3_4 A B C VGND VNB VPB VPWR Y
.ends

* Black-box entry subcircuit for sky130_fd_sc_hd__or3_4 abstract view
.subckt sky130_fd_sc_hd__or3_4 A B C VGND VNB VPB VPWR X
.ends

* Black-box entry subcircuit for sky130_fd_sc_hd__a41o_1 abstract view
.subckt sky130_fd_sc_hd__a41o_1 A1 A2 A3 A4 B1 VGND VNB VPB VPWR X
.ends

* Black-box entry subcircuit for sky130_fd_sc_hd__or4bb_4 abstract view
.subckt sky130_fd_sc_hd__or4bb_4 A B C_N D_N VGND VNB VPB VPWR X
.ends

* Black-box entry subcircuit for sky130_fd_sc_hd__nor3_2 abstract view
.subckt sky130_fd_sc_hd__nor3_2 A B C VGND VNB VPB VPWR Y
.ends

* Black-box entry subcircuit for sky130_fd_sc_hd__o211ai_1 abstract view
.subckt sky130_fd_sc_hd__o211ai_1 A1 A2 B1 C1 VGND VNB VPB VPWR Y
.ends

* Black-box entry subcircuit for sky130_fd_sc_hd__and4bb_4 abstract view
.subckt sky130_fd_sc_hd__and4bb_4 A_N B_N C D VGND VNB VPB VPWR X
.ends

.subckt edge_analytics_ip_core VGND VPWR cfg_addr[0] cfg_addr[1] cfg_addr[2] cfg_addr[3]
+ cfg_addr[4] cfg_addr[5] cfg_addr[6] cfg_addr[7] cfg_clk cfg_rdata[0] cfg_rdata[10]
+ cfg_rdata[11] cfg_rdata[12] cfg_rdata[13] cfg_rdata[14] cfg_rdata[15] cfg_rdata[16]
+ cfg_rdata[17] cfg_rdata[18] cfg_rdata[19] cfg_rdata[1] cfg_rdata[20] cfg_rdata[21]
+ cfg_rdata[22] cfg_rdata[23] cfg_rdata[24] cfg_rdata[25] cfg_rdata[26] cfg_rdata[27]
+ cfg_rdata[28] cfg_rdata[29] cfg_rdata[2] cfg_rdata[30] cfg_rdata[31] cfg_rdata[3]
+ cfg_rdata[4] cfg_rdata[5] cfg_rdata[6] cfg_rdata[7] cfg_rdata[8] cfg_rdata[9] cfg_read
+ cfg_rst_n cfg_wdata[0] cfg_wdata[10] cfg_wdata[11] cfg_wdata[12] cfg_wdata[13] cfg_wdata[14]
+ cfg_wdata[15] cfg_wdata[16] cfg_wdata[17] cfg_wdata[18] cfg_wdata[19] cfg_wdata[1]
+ cfg_wdata[20] cfg_wdata[21] cfg_wdata[22] cfg_wdata[23] cfg_wdata[24] cfg_wdata[25]
+ cfg_wdata[26] cfg_wdata[27] cfg_wdata[28] cfg_wdata[29] cfg_wdata[2] cfg_wdata[30]
+ cfg_wdata[31] cfg_wdata[3] cfg_wdata[4] cfg_wdata[5] cfg_wdata[6] cfg_wdata[7] cfg_wdata[8]
+ cfg_wdata[9] cfg_write clk data_valid_out irq_alert processed_data_out[0] processed_data_out[10]
+ processed_data_out[11] processed_data_out[12] processed_data_out[13] processed_data_out[14]
+ processed_data_out[15] processed_data_out[1] processed_data_out[2] processed_data_out[3]
+ processed_data_out[4] processed_data_out[5] processed_data_out[6] processed_data_out[7]
+ processed_data_out[8] processed_data_out[9] rst_n sensor_data_in[0] sensor_data_in[10]
+ sensor_data_in[11] sensor_data_in[12] sensor_data_in[13] sensor_data_in[14] sensor_data_in[15]
+ sensor_data_in[16] sensor_data_in[17] sensor_data_in[18] sensor_data_in[19] sensor_data_in[1]
+ sensor_data_in[20] sensor_data_in[21] sensor_data_in[22] sensor_data_in[23] sensor_data_in[24]
+ sensor_data_in[25] sensor_data_in[26] sensor_data_in[27] sensor_data_in[28] sensor_data_in[29]
+ sensor_data_in[2] sensor_data_in[30] sensor_data_in[31] sensor_data_in[32] sensor_data_in[33]
+ sensor_data_in[34] sensor_data_in[35] sensor_data_in[36] sensor_data_in[37] sensor_data_in[38]
+ sensor_data_in[39] sensor_data_in[3] sensor_data_in[40] sensor_data_in[41] sensor_data_in[42]
+ sensor_data_in[43] sensor_data_in[44] sensor_data_in[45] sensor_data_in[46] sensor_data_in[47]
+ sensor_data_in[48] sensor_data_in[49] sensor_data_in[4] sensor_data_in[50] sensor_data_in[51]
+ sensor_data_in[52] sensor_data_in[53] sensor_data_in[54] sensor_data_in[55] sensor_data_in[56]
+ sensor_data_in[57] sensor_data_in[58] sensor_data_in[59] sensor_data_in[5] sensor_data_in[60]
+ sensor_data_in[61] sensor_data_in[62] sensor_data_in[63] sensor_data_in[6] sensor_data_in[7]
+ sensor_data_in[8] sensor_data_in[9] sensor_valid[0] sensor_valid[1] sensor_valid[2]
+ sensor_valid[3]
XFILLER_0_94_77 VGND VGND VPWR VPWR sky130_fd_sc_hd__decap_6
X_7963_ clknet_leaf_22_clk _0053_ net193 VGND VGND VPWR VPWR u_input_buffer.data_in\[3\]
+ sky130_fd_sc_hd__dfrtp_1
X_6914_ _3145_ _3154_ _3163_ VGND VGND VPWR VPWR _3164_ sky130_fd_sc_hd__or3_1
XFILLER_0_49_303 VGND VGND VPWR VPWR sky130_fd_sc_hd__fill_1
X_7894_ clknet_leaf_82_clk net231 net188 VGND VGND VPWR VPWR u_register_bank.status_flags\[14\]
+ sky130_fd_sc_hd__dfrtp_1
X_6845_ u_input_buffer.fifo_mem\[29\]\[1\] _2939_ _2941_ u_input_buffer.fifo_mem\[13\]\[1\]
+ _3095_ VGND VGND VPWR VPWR _3096_ sky130_fd_sc_hd__a221o_1
X_3988_ _1344_ VGND VGND VPWR VPWR _0021_ sky130_fd_sc_hd__clkbuf_1
X_6776_ _2910_ _2956_ VGND VGND VPWR VPWR _3028_ sky130_fd_sc_hd__and2_2
X_5727_ _2393_ VGND VGND VPWR VPWR _0711_ sky130_fd_sc_hd__clkbuf_1
X_8515_ clknet_leaf_69_clk _0604_ VGND VGND VPWR VPWR u_input_buffer.fifo_mem\[31\]\[9\]
+ sky130_fd_sc_hd__dfxtp_1
X_8446_ clknet_leaf_28_clk _0535_ VGND VGND VPWR VPWR u_input_buffer.fifo_mem\[35\]\[4\]
+ sky130_fd_sc_hd__dfxtp_1
XFILLER_0_115_474 VGND VGND VPWR VPWR sky130_fd_sc_hd__fill_2
X_5658_ net591 _2252_ _2352_ VGND VGND VPWR VPWR _2357_ sky130_fd_sc_hd__mux2_1
X_5589_ net672 _2252_ _2315_ VGND VGND VPWR VPWR _2320_ sky130_fd_sc_hd__mux2_1
XFILLER_0_60_589 VGND VGND VPWR VPWR sky130_fd_sc_hd__decap_8
XFILLER_0_4_193 VGND VGND VPWR VPWR sky130_fd_sc_hd__decap_3
X_4609_ _1634_ _1775_ VGND VGND VPWR VPWR _1776_ sky130_fd_sc_hd__and2_1
X_8377_ clknet_leaf_93_clk _0466_ VGND VGND VPWR VPWR u_input_buffer.fifo_mem\[40\]\[15\]
+ sky130_fd_sc_hd__dfxtp_1
Xhold362 u_input_buffer.fifo_mem\[8\]\[1\] VGND VGND VPWR VPWR net574 sky130_fd_sc_hd__dlygate4sd3_1
Xhold351 u_input_buffer.fifo_mem\[44\]\[13\] VGND VGND VPWR VPWR net563 sky130_fd_sc_hd__dlygate4sd3_1
XFILLER_0_13_483 VGND VGND VPWR VPWR sky130_fd_sc_hd__decap_8
X_7328_ u_input_buffer.fifo_mem\[27\]\[13\] _3012_ _3014_ u_input_buffer.fifo_mem\[59\]\[13\]
+ _3566_ VGND VGND VPWR VPWR _3567_ sky130_fd_sc_hd__a221o_1
XFILLER_0_40_280 VGND VGND VPWR VPWR sky130_fd_sc_hd__fill_1
Xhold340 u_input_buffer.fifo_mem\[24\]\[13\] VGND VGND VPWR VPWR net552 sky130_fd_sc_hd__dlygate4sd3_1
Xhold395 u_input_buffer.fifo_mem\[8\]\[6\] VGND VGND VPWR VPWR net607 sky130_fd_sc_hd__dlygate4sd3_1
Xhold384 u_input_buffer.fifo_mem\[53\]\[14\] VGND VGND VPWR VPWR net596 sky130_fd_sc_hd__dlygate4sd3_1
Xhold373 u_input_buffer.fifo_mem\[50\]\[13\] VGND VGND VPWR VPWR net585 sky130_fd_sc_hd__dlygate4sd3_1
X_7259_ u_input_buffer.fifo_mem\[10\]\[11\] _3055_ _3057_ u_input_buffer.fifo_mem\[44\]\[11\]
+ _3499_ VGND VGND VPWR VPWR _3500_ sky130_fd_sc_hd__a221o_1
Xhold1040 u_input_buffer.fifo_mem\[61\]\[2\] VGND VGND VPWR VPWR net1252 sky130_fd_sc_hd__dlygate4sd3_1
Xhold1051 u_input_buffer.fifo_mem\[60\]\[14\] VGND VGND VPWR VPWR net1263 sky130_fd_sc_hd__dlygate4sd3_1
Xhold1062 u_sensor_interface.sensor_array\[0\]\[4\] VGND VGND VPWR VPWR net1274 sky130_fd_sc_hd__dlygate4sd3_1
Xhold1084 u_input_buffer.fifo_mem\[21\]\[13\] VGND VGND VPWR VPWR net1296 sky130_fd_sc_hd__dlygate4sd3_1
Xhold1073 u_input_buffer.fifo_mem\[25\]\[3\] VGND VGND VPWR VPWR net1285 sky130_fd_sc_hd__dlygate4sd3_1
Xhold1095 u_input_buffer.fifo_mem\[33\]\[6\] VGND VGND VPWR VPWR net1307 sky130_fd_sc_hd__dlygate4sd3_1
XFILLER_0_95_475 VGND VGND VPWR VPWR sky130_fd_sc_hd__decap_3
XFILLER_0_82_114 VGND VGND VPWR VPWR sky130_fd_sc_hd__fill_1
XFILLER_0_91_670 VGND VGND VPWR VPWR sky130_fd_sc_hd__fill_2
XFILLER_0_63_383 VGND VGND VPWR VPWR sky130_fd_sc_hd__fill_1
XFILLER_0_3_609 VGND VGND VPWR VPWR sky130_fd_sc_hd__decap_6
XFILLER_0_48_48 VGND VGND VPWR VPWR sky130_fd_sc_hd__fill_1
XFILLER_0_3_39 VGND VGND VPWR VPWR sky130_fd_sc_hd__decap_3
XFILLER_0_98_291 VGND VGND VPWR VPWR sky130_fd_sc_hd__fill_1
X_4960_ net1099 _1734_ _1951_ VGND VGND VPWR VPWR _1968_ sky130_fd_sc_hd__mux2_1
XFILLER_0_86_475 VGND VGND VPWR VPWR sky130_fd_sc_hd__fill_1
XFILLER_0_59_667 VGND VGND VPWR VPWR sky130_fd_sc_hd__decap_4
X_4891_ _1929_ VGND VGND VPWR VPWR _1930_ sky130_fd_sc_hd__buf_8
XFILLER_0_46_306 VGND VGND VPWR VPWR sky130_fd_sc_hd__fill_2
XFILLER_0_104_53 VPWR VGND VPWR VGND sky130_ef_sc_hd__decap_12
XFILLER_0_86_486 VGND VGND VPWR VPWR sky130_fd_sc_hd__fill_1
XFILLER_0_13_51 VGND VGND VPWR VPWR sky130_fd_sc_hd__decap_4
X_6630_ net261 _1595_ VGND VGND VPWR VPWR _2888_ sky130_fd_sc_hd__nor2_1
XFILLER_0_104_97 VGND VGND VPWR VPWR sky130_fd_sc_hd__fill_2
X_6561_ net262 _1390_ _2843_ VGND VGND VPWR VPWR _2846_ sky130_fd_sc_hd__mux2_1
XFILLER_0_73_169 VGND VGND VPWR VPWR sky130_fd_sc_hd__decap_4
X_8300_ clknet_leaf_50_clk _0389_ VGND VGND VPWR VPWR u_input_buffer.fifo_mem\[44\]\[2\]
+ sky130_fd_sc_hd__dfxtp_1
X_5512_ _2278_ VGND VGND VPWR VPWR _0611_ sky130_fd_sc_hd__clkbuf_1
XFILLER_0_89_55 VGND VGND VPWR VPWR sky130_fd_sc_hd__fill_1
X_6492_ _2809_ VGND VGND VPWR VPWR _1060_ sky130_fd_sc_hd__clkbuf_1
XFILLER_0_112_411 VGND VGND VPWR VPWR sky130_fd_sc_hd__fill_1
X_5443_ net755 _2008_ _2223_ VGND VGND VPWR VPWR _2233_ sky130_fd_sc_hd__mux2_1
X_8231_ clknet_leaf_1_clk _0320_ VGND VGND VPWR VPWR u_input_buffer.fifo_mem\[49\]\[13\]
+ sky130_fd_sc_hd__dfxtp_1
X_5374_ _2196_ VGND VGND VPWR VPWR _0555_ sky130_fd_sc_hd__clkbuf_1
X_8162_ clknet_leaf_8_clk _0251_ VGND VGND VPWR VPWR u_input_buffer.fifo_mem\[53\]\[8\]
+ sky130_fd_sc_hd__dfxtp_1
X_4325_ _1603_ VGND VGND VPWR VPWR _0099_ sky130_fd_sc_hd__clkbuf_1
X_7113_ u_input_buffer.fifo_mem\[33\]\[8\] _2898_ _2904_ u_input_buffer.fifo_mem\[61\]\[8\]
+ _3356_ VGND VGND VPWR VPWR _3357_ sky130_fd_sc_hd__a221o_1
XFILLER_0_10_464 VGND VGND VPWR VPWR sky130_fd_sc_hd__decap_4
X_8093_ clknet_leaf_3_clk _0182_ VGND VGND VPWR VPWR u_input_buffer.fifo_mem\[57\]\[3\]
+ sky130_fd_sc_hd__dfxtp_1
X_7044_ u_input_buffer.fifo_mem\[16\]\[6\] _2971_ _2973_ u_input_buffer.fifo_mem\[49\]\[6\]
+ _2975_ VGND VGND VPWR VPWR _3290_ sky130_fd_sc_hd__a221o_1
XFILLER_0_10_497 VPWR VGND VPWR VGND sky130_ef_sc_hd__decap_12
X_4256_ u_analytics_engine.data_in\[13\] VGND VGND VPWR VPWR _1536_ sky130_fd_sc_hd__inv_2
X_4187_ u_sample_counter.sample_count\[9\] _1487_ VGND VGND VPWR VPWR _1490_ sky130_fd_sc_hd__nand2_1
X_8995_ clknet_leaf_6_clk _1084_ VGND VGND VPWR VPWR u_input_buffer.fifo_mem\[1\]\[9\]
+ sky130_fd_sc_hd__dfxtp_1
X_7946_ clknet_leaf_27_clk _0036_ VGND VGND VPWR VPWR u_sensor_interface.sensor_array\[0\]\[2\]
+ sky130_fd_sc_hd__dfxtp_1
XTAP_1118 VGND VPWR sky130_fd_sc_hd__tapvpwrvgnd_1
XTAP_1129 VGND VPWR sky130_fd_sc_hd__tapvpwrvgnd_1
XTAP_1107 VGND VPWR sky130_fd_sc_hd__tapvpwrvgnd_1
X_7877_ _3938_ VGND VGND VPWR VPWR _1316_ sky130_fd_sc_hd__clkbuf_1
XFILLER_0_49_166 VGND VGND VPWR VPWR sky130_fd_sc_hd__fill_2
X_6828_ _3079_ VGND VGND VPWR VPWR _3080_ sky130_fd_sc_hd__clkbuf_4
XFILLER_0_107_205 VGND VGND VPWR VPWR sky130_fd_sc_hd__decap_6
XFILLER_0_18_531 VGND VGND VPWR VPWR sky130_fd_sc_hd__fill_1
X_6759_ u_input_buffer.fifo_mem\[8\]\[0\] _3004_ _3006_ u_input_buffer.fifo_mem\[19\]\[0\]
+ _3010_ VGND VGND VPWR VPWR _3011_ sky130_fd_sc_hd__a221o_1
X_8429_ clknet_leaf_29_clk _0518_ VGND VGND VPWR VPWR u_input_buffer.fifo_mem\[36\]\[3\]
+ sky130_fd_sc_hd__dfxtp_1
Xhold170 u_input_buffer.fifo_mem\[48\]\[3\] VGND VGND VPWR VPWR net382 sky130_fd_sc_hd__dlygate4sd3_1
Xhold192 u_input_buffer.fifo_mem\[14\]\[8\] VGND VGND VPWR VPWR net404 sky130_fd_sc_hd__dlygate4sd3_1
Xhold181 u_input_buffer.fifo_mem\[12\]\[4\] VGND VGND VPWR VPWR net393 sky130_fd_sc_hd__dlygate4sd3_1
XFILLER_0_18_29 VPWR VGND VPWR VGND sky130_ef_sc_hd__decap_12
XFILLER_0_87_239 VGND VGND VPWR VPWR sky130_fd_sc_hd__fill_1
XTAP_1641 VGND VPWR sky130_fd_sc_hd__tapvpwrvgnd_1
XTAP_1630 VGND VPWR sky130_fd_sc_hd__tapvpwrvgnd_1
XFILLER_0_55_169 VGND VGND VPWR VPWR sky130_fd_sc_hd__fill_1
XFILLER_0_70_139 VGND VGND VPWR VPWR sky130_fd_sc_hd__fill_1
XFILLER_0_36_394 VGND VGND VPWR VPWR sky130_fd_sc_hd__decap_4
XFILLER_0_59_47 VGND VGND VPWR VPWR sky130_fd_sc_hd__fill_1
X_4110_ _1429_ u_sensor_interface.sensor_array\[3\]\[8\] _1381_ VGND VGND VPWR VPWR
+ _1430_ sky130_fd_sc_hd__mux2_1
X_5090_ net420 _1996_ _2042_ VGND VGND VPWR VPWR _2046_ sky130_fd_sc_hd__mux2_1
X_4041_ _1372_ VGND VGND VPWR VPWR _0046_ sky130_fd_sc_hd__clkbuf_1
X_8780_ clknet_leaf_27_clk _0869_ VGND VGND VPWR VPWR u_input_buffer.fifo_mem\[14\]\[2\]
+ sky130_fd_sc_hd__dfxtp_1
X_5992_ _2541_ VGND VGND VPWR VPWR _0828_ sky130_fd_sc_hd__clkbuf_1
X_7800_ net149 u_analytics_engine.data_in\[10\] _3893_ VGND VGND VPWR VPWR _3898_
+ sky130_fd_sc_hd__mux2_1
XFILLER_0_115_41 VGND VGND VPWR VPWR sky130_fd_sc_hd__decap_4
X_4943_ _1959_ VGND VGND VPWR VPWR _0361_ sky130_fd_sc_hd__clkbuf_1
X_7731_ u_register_bank.window_cfg\[20\] _3847_ _3848_ u_register_bank.threshold_cfg\[20\]
+ _3850_ VGND VGND VPWR VPWR _3851_ sky130_fd_sc_hd__a221o_1
X_7662_ u_register_bank.window_cfg\[5\] _3772_ _3773_ u_analytics_engine.threshold\[5\]
+ _3796_ VGND VGND VPWR VPWR _3797_ sky130_fd_sc_hd__a221o_1
XFILLER_0_74_445 VPWR VGND VPWR VGND sky130_ef_sc_hd__decap_12
X_4874_ net445 _1720_ _1912_ VGND VGND VPWR VPWR _1921_ sky130_fd_sc_hd__mux2_1
X_6613_ _2874_ _2875_ VGND VGND VPWR VPWR _1115_ sky130_fd_sc_hd__nor2_1
XFILLER_0_62_629 VGND VGND VPWR VPWR sky130_fd_sc_hd__fill_1
X_7593_ net16 u_analytics_engine.threshold\[13\] _3748_ VGND VGND VPWR VPWR _3752_
+ sky130_fd_sc_hd__mux2_1
XFILLER_0_34_309 VGND VGND VPWR VPWR sky130_fd_sc_hd__decap_3
X_6544_ _2836_ VGND VGND VPWR VPWR _1085_ sky130_fd_sc_hd__clkbuf_1
X_6475_ net1144 _1438_ _2788_ VGND VGND VPWR VPWR _2800_ sky130_fd_sc_hd__mux2_1
X_5426_ _2224_ VGND VGND VPWR VPWR _0579_ sky130_fd_sc_hd__clkbuf_1
XFILLER_0_71_3 VGND VGND VPWR VPWR sky130_fd_sc_hd__fill_1
X_8214_ clknet_leaf_9_clk _0303_ VGND VGND VPWR VPWR u_input_buffer.fifo_mem\[50\]\[12\]
+ sky130_fd_sc_hd__dfxtp_1
X_9194_ clknet_leaf_82_clk _1282_ net187 VGND VGND VPWR VPWR net151 sky130_fd_sc_hd__dfrtp_1
X_8145_ clknet_leaf_35_clk _0234_ VGND VGND VPWR VPWR u_input_buffer.fifo_mem\[54\]\[7\]
+ sky130_fd_sc_hd__dfxtp_1
X_5357_ net886 _1988_ _2187_ VGND VGND VPWR VPWR _2188_ sky130_fd_sc_hd__mux2_1
XFILLER_0_100_469 VGND VGND VPWR VPWR sky130_fd_sc_hd__decap_4
X_5288_ _2150_ VGND VGND VPWR VPWR _2151_ sky130_fd_sc_hd__buf_4
X_8076_ clknet_leaf_59_clk _0165_ VGND VGND VPWR VPWR u_input_buffer.fifo_mem\[58\]\[2\]
+ sky130_fd_sc_hd__dfxtp_1
X_4308_ _1587_ VGND VGND VPWR VPWR _0098_ sky130_fd_sc_hd__clkbuf_1
X_7027_ u_input_buffer.fifo_mem\[26\]\[5\] _3066_ _3068_ u_input_buffer.fifo_mem\[62\]\[5\]
+ _3273_ VGND VGND VPWR VPWR _3274_ sky130_fd_sc_hd__a221o_1
X_4239_ net228 _1522_ VGND VGND VPWR VPWR _1525_ sky130_fd_sc_hd__nor2_1
XFILLER_0_97_559 VGND VGND VPWR VPWR sky130_fd_sc_hd__fill_1
X_8978_ clknet_leaf_16_clk _1067_ VGND VGND VPWR VPWR u_input_buffer.fifo_mem\[2\]\[8\]
+ sky130_fd_sc_hd__dfxtp_1
X_7929_ clknet_leaf_33_clk _0019_ VGND VGND VPWR VPWR u_sensor_interface.sensor_array\[1\]\[1\]
+ sky130_fd_sc_hd__dfxtp_1
XFILLER_0_92_253 VGND VGND VPWR VPWR sky130_fd_sc_hd__fill_1
XFILLER_0_53_629 VGND VGND VPWR VPWR sky130_fd_sc_hd__decap_4
XFILLER_0_45_180 VGND VGND VPWR VPWR sky130_fd_sc_hd__fill_1
XFILLER_0_103_252 VGND VGND VPWR VPWR sky130_fd_sc_hd__fill_2
XFILLER_0_60_194 VGND VGND VPWR VPWR sky130_fd_sc_hd__fill_2
XFILLER_0_61_15 VGND VGND VPWR VPWR sky130_fd_sc_hd__decap_4
XFILLER_0_0_29 VGND VGND VPWR VPWR sky130_fd_sc_hd__decap_6
XTAP_1460 VGND VPWR sky130_fd_sc_hd__tapvpwrvgnd_1
XFILLER_0_96_570 VGND VGND VPWR VPWR sky130_fd_sc_hd__decap_4
XFILLER_0_8_509 VPWR VGND VPWR VGND sky130_ef_sc_hd__decap_12
XTAP_1493 VGND VPWR sky130_fd_sc_hd__tapvpwrvgnd_1
XTAP_1482 VGND VPWR sky130_fd_sc_hd__tapvpwrvgnd_1
XTAP_1471 VGND VPWR sky130_fd_sc_hd__tapvpwrvgnd_1
XFILLER_0_16_309 VGND VGND VPWR VPWR sky130_fd_sc_hd__decap_4
X_4590_ _1765_ VGND VGND VPWR VPWR _0202_ sky130_fd_sc_hd__clkbuf_1
XFILLER_0_9_27 VPWR VGND VPWR VGND sky130_ef_sc_hd__decap_12
XFILLER_0_37_681 VGND VGND VPWR VPWR sky130_fd_sc_hd__fill_2
XFILLER_0_3_225 VGND VGND VPWR VPWR sky130_fd_sc_hd__fill_2
Xhold917 u_input_buffer.fifo_mem\[46\]\[6\] VGND VGND VPWR VPWR net1129 sky130_fd_sc_hd__dlygate4sd3_1
Xhold928 u_input_buffer.fifo_mem\[48\]\[7\] VGND VGND VPWR VPWR net1140 sky130_fd_sc_hd__dlygate4sd3_1
XFILLER_0_10_41 VPWR VGND VPWR VGND sky130_ef_sc_hd__decap_12
Xhold906 u_input_buffer.fifo_mem\[32\]\[15\] VGND VGND VPWR VPWR net1118 sky130_fd_sc_hd__dlygate4sd3_1
Xhold939 u_input_buffer.fifo_mem\[18\]\[3\] VGND VGND VPWR VPWR net1151 sky130_fd_sc_hd__dlygate4sd3_1
X_6260_ _1612_ net1244 _2680_ VGND VGND VPWR VPWR _2686_ sky130_fd_sc_hd__mux2_1
XFILLER_0_10_85 VGND VGND VPWR VPWR sky130_fd_sc_hd__fill_1
X_6191_ _2649_ VGND VGND VPWR VPWR _0919_ sky130_fd_sc_hd__clkbuf_1
X_5211_ net391 _2014_ _2096_ VGND VGND VPWR VPWR _2110_ sky130_fd_sc_hd__mux2_1
XFILLER_0_86_89 VGND VGND VPWR VPWR sky130_fd_sc_hd__fill_1
X_5142_ _1451_ net1009 _2059_ VGND VGND VPWR VPWR _2073_ sky130_fd_sc_hd__mux2_1
X_5073_ _2036_ VGND VGND VPWR VPWR _0414_ sky130_fd_sc_hd__clkbuf_1
X_4024_ _1363_ VGND VGND VPWR VPWR _0038_ sky130_fd_sc_hd__clkbuf_1
X_8901_ clknet_leaf_81_clk _0990_ VGND VGND VPWR VPWR u_input_buffer.fifo_mem\[7\]\[11\]
+ sky130_fd_sc_hd__dfxtp_1
X_8832_ clknet_leaf_37_clk _0921_ VGND VGND VPWR VPWR u_input_buffer.fifo_mem\[11\]\[6\]
+ sky130_fd_sc_hd__dfxtp_1
X_8763_ clknet_leaf_33_clk _0852_ VGND VGND VPWR VPWR u_input_buffer.fifo_mem\[15\]\[1\]
+ sky130_fd_sc_hd__dfxtp_1
XFILLER_0_59_261 VGND VGND VPWR VPWR sky130_fd_sc_hd__fill_1
X_5975_ _1604_ net1007 _2531_ VGND VGND VPWR VPWR _2533_ sky130_fd_sc_hd__mux2_1
X_8694_ clknet_leaf_90_clk _0783_ VGND VGND VPWR VPWR u_input_buffer.fifo_mem\[20\]\[12\]
+ sky130_fd_sc_hd__dfxtp_1
X_7714_ u_register_bank.status_flags\[17\] _3814_ _3808_ u_register_bank.sensor_enable\[17\]